384
dust
O  35.911189 31.248127 24.975695
H  35.531489 31.227588 24.088183
H  35.151057 31.454128 25.574439
O  31.229660 29.478528 27.237625
H  31.638980 30.061609 27.899023
H  32.015085 29.103154 26.769978
O  32.279656 26.147525 25.529826
H  32.750838 27.000114 25.575232
H  32.766502 25.568466 26.147220
O  28.983820 30.089461 25.829076
H  29.243759 29.740478 24.949488
H  29.796976 29.980793 26.363582
O  26.618280 32.037331 34.321201
H  27.085501 32.825925 33.929129
H  27.302229 31.350579 34.480517
O  32.728349 35.526430 26.464267
H  31.986074 35.456097 25.843886
H  32.689404 36.422292 26.871881
O  36.752991 25.974557 33.542297
H  36.320815 26.348528 34.337596
H  36.507435 25.036886 33.562471
O  31.287986 28.109656 35.529295
H  31.129524 29.076521 35.718718
H  31.971081 28.039384 34.823649
O  28.462905 24.271512 26.210057
H  28.878077 25.064129 25.798115
H  28.088202 23.795332 25.457787
O  30.538154 36.551073 29.501505
H  30.262064 35.910885 28.810608
H  29.683005 36.774383 29.911801
O  28.736862 37.046878 33.473001
H  29.308241 37.844431 33.544613
H  28.404274 36.803821 34.367399
O  24.831007 34.884353 33.342513
H  24.373111 34.009762 33.287904
H  24.774630 35.261859 32.442934
O  36.062338 29.924356 29.011246
H  35.087916 30.088608 29.061223
H  36.455447 30.825702 28.984369
O  33.092325 23.560381 33.178504
H  32.949465 24.291868 32.550201
H  32.380646 22.904895 33.014678
O  30.386761 32.273744 28.014517
H  31.198881 32.746450 28.347959
H  30.126030 31.632032 28.701269
O  26.714942 28.590041 26.810081
H  26.802523 28.877285 27.756102
H  27.549369 28.926225 26.428125
O  37.777085 35.511437 29.971407
H  37.090942 36.034059 29.520215
H  37.680910 34.618806 29.573300
O  37.131046 32.638025 29.018743
H  37.867347 32.324392 29.626629
H  37.470155 32.736455 28.102708
O  28.166580 36.467271 30.872571
H  27.221778 36.262123 30.708318
H  28.222103 36.674003 31.831573
O  33.508959 23.876636 29.714332
H  33.312405 24.651274 30.279677
H  34.420119 23.596401 29.996395
O  29.861214 30.207943 29.863713
H  30.245791 29.364800 30.173873
H  29.193905 30.460629 30.554671
O  31.282318 38.353583 35.998283
H  31.726622 37.502701 35.798498
H  31.162191 38.738464 35.114367
O  32.774973 37.703339 28.034203
H  32.060917 37.449616 28.633679
H  33.595687 37.407623 28.483688
O  28.366182 29.986948 34.853696
H  27.658464 29.552700 35.374916
H  29.105166 30.168144 35.485657
O  33.983006 31.859853 26.762664
H  33.121580 32.039342 26.321163
H  33.758721 31.266045 27.508108
O  34.003789 25.550731 37.360268
H  34.335402 25.015311 38.087306
H  33.394988 26.222734 37.767029
O  29.430014 34.804756 27.687475
H  28.460284 34.894775 27.518408
H  29.577384 33.842828 27.865624
O  28.190715 35.826899 35.936787
H  28.563163 36.313989 36.696371
H  27.223424 35.788686 36.088911
O  24.331606 32.091147 28.459187
H  24.435460 31.420363 27.756041
H  23.940935 31.649159 29.229863
O  27.208675 32.176778 26.142893
H  26.370652 31.687494 26.011918
H  27.911273 31.509041 25.960539
O  33.340502 28.683899 25.762583
H  33.164243 29.265274 24.968442
H  34.292739 28.810060 26.001800
O  38.793682 26.836593 31.303650
H  38.441042 26.521070 32.154105
H  38.523138 27.776458 31.294812
O  28.875822 27.066729 35.877729
H  28.553777 27.707527 36.548879
H  29.776803 27.427475 35.669900
O  33.625125 29.925818 37.503676
H  33.165888 30.633292 37.989364
H  33.142972 29.106263 37.736921
O  31.266106 34.983940 37.995519
H  31.624658 35.203106 37.098805
H  30.756223 35.790331 38.188721
O  32.255095 35.824462 35.559159
H  33.175579 35.681541 35.244916
H  31.670003 35.478282 34.832426
O  31.046148 21.779020 32.896746
H  31.070466 20.857499 33.193131
H  30.252251 22.174140 33.344524
O  30.113657 24.774204 31.125806
H  30.435214 23.892604 30.849655
H  30.415650 25.308222 30.354520
O  34.814202 31.603875 32.191161
H  34.145796 32.134846 32.692207
H  35.705066 31.901906 32.528077
O  26.157337 26.094013 30.346597
H  26.451956 25.330651 30.874643
H  26.229377 25.848823 29.402283
O  33.180150 27.625004 33.796934
H  32.975428 26.854572 33.225494
H  33.364941 28.352347 33.142972
O  37.165298 32.647899 33.007365
H  37.000558 33.620005 32.870356
H  37.409208 32.510951 33.936259
O  35.135455 34.372763 26.953185
H  34.398726 34.841629 26.494070
H  34.777878 33.453741 27.013949
O  27.564301 32.196342 28.916656
H  26.738041 32.418006 29.393689
H  27.342515 32.257715 27.957958
O  30.577526 35.056102 33.531144
H  29.771257 35.615352 33.522794
H  30.275045 34.127999 33.473488
O  31.508858 32.273196 25.515808
H  30.982641 32.094316 26.319822
H  31.162496 33.140717 25.207111
O  25.646540 32.929596 36.629817
H  25.530740 33.900179 36.520538
H  26.068476 32.621691 35.780945
O  34.277076 35.216941 31.250930
H  34.126475 34.346068 30.821619
H  33.414918 35.660392 31.463940
O  32.324392 27.489641 37.900015
H  31.902699 27.585450 37.006592
H  31.527325 27.555464 38.474259
O  26.543986 26.618463 38.630527
H  25.907393 26.402893 39.322277
H  27.281385 25.978275 38.770523
O  33.826738 30.450695 34.881488
H  33.663156 30.189597 35.825254
H  32.950745 30.486288 34.451202
O  36.146689 29.400211 33.806503
H  36.188438 28.608873 34.371909
H  35.290626 29.806423 34.084056
O  30.907981 38.756078 33.180333
H  30.967953 39.586909 32.688794
H  31.412928 38.111319 32.634490
O  25.689325 29.333839 35.341943
H  25.424936 28.432066 35.666365
H  24.995503 29.938861 35.681053
O  31.719309 32.683858 35.725727
H  32.340482 32.841467 36.472573
H  32.197073 32.882545 34.899346
O  25.637885 35.280021 30.629636
H  25.092652 35.206580 29.819100
H  25.858818 34.336377 30.794376
O  33.752382 24.234761 26.990606
H  33.658463 24.153458 27.962347
H  33.033389 23.661310 26.677521
O  36.036497 23.260826 30.437104
H  36.515906 24.079102 30.167169
H  36.091776 23.260826 31.411160
O  23.676973 31.232402 36.147725
H  23.013991 31.099416 36.833014
H  24.289126 31.932319 36.496099
O  29.516681 27.602942 28.044503
H  29.076033 27.693814 28.919887
H  30.121946 28.373861 27.946439
O  32.424771 33.881895 28.628742
H  32.568789 34.489537 27.865380
H  33.300886 33.481107 28.845470
O  36.043749 28.896666 26.395397
H  36.146811 29.309460 27.288089
H  36.197519 29.629859 25.770079
O  31.215947 22.454740 30.086658
H  31.215764 21.951500 30.920902
H  32.139722 22.803906 29.979452
O  28.133181 28.928297 37.827000
H  27.318562 28.549328 38.197071
H  28.022258 29.911313 37.788421
O  34.536710 32.860421 29.847928
H  35.448113 32.935630 29.492302
H  34.643672 32.279413 30.654746
O  29.154655 33.243108 35.823182
H  30.128528 33.249386 35.935690
H  28.869483 34.184436 35.826412
O  32.029773 31.196931 31.017747
H  31.839131 32.181288 31.064920
H  31.191080 30.872875 30.583560
O  34.751244 34.995398 34.600156
H  35.121437 34.196808 35.052567
H  35.466336 35.330912 34.040601
O  27.158089 26.555200 33.825214
H  27.879337 26.748890 34.464671
H  27.020226 27.395417 33.342818
O  30.421196 26.074632 33.482447
H  30.426743 25.512639 32.680688
H  31.033349 25.698528 34.132753
O  27.571371 34.285669 33.362686
H  27.936139 34.014698 32.498091
H  26.659359 34.578032 33.178626
O  31.429993 28.118371 30.867878
H  30.893293 28.188217 31.682192
H  32.256009 28.595770 31.097100
O  29.670938 26.571717 25.526840
H  30.640911 26.329513 25.532142
H  29.529053 26.960498 26.413376
O  32.019534 36.547965 31.822187
H  31.518061 35.880960 32.355657
H  31.545122 36.533398 30.959481
O  31.517452 33.718252 31.109594
H  31.787204 34.002387 30.205505
H  30.517493 33.735804 31.093077
O  38.848047 31.791287 30.865074
H  38.459875 32.232605 31.641296
H  38.588839 30.864648 31.019880
O  27.894695 31.653242 37.632153
H  28.383004 32.092122 36.894266
H  27.042716 32.113393 37.600094
O  35.550626 26.396372 27.392613
H  35.765830 27.051858 26.710981
H  35.073593 25.648002 26.976223
O  33.548941 27.527184 29.001251
H  34.257573 27.161502 28.431822
H  32.776070 26.941483 28.842727
O  27.541873 24.454719 32.171353
H  28.391231 24.622750 31.696210
H  27.443809 25.214669 32.791185
O  24.034123 32.176534 33.504998
H  23.692210 31.871494 34.375932
H  25.000927 32.004175 33.596175
O  30.921206 23.455491 27.389017
H  30.751774 22.913976 28.181330
H  30.043873 23.593110 26.984633
O  26.949589 34.923846 26.798379
H  26.095964 34.982356 27.271511
H  26.956049 34.014333 26.436963
O  29.567023 28.467171 32.943736
H  29.847319 27.583682 33.301191
H  29.030871 28.911293 33.657670
O  32.378086 30.203006 23.799599
H  32.046656 30.983555 24.295464
H  31.565905 29.686418 23.641441
O  28.810730 25.061082 38.966894
H  28.887950 24.309056 39.557411
H  29.115649 24.746960 38.067924
O  30.481595 30.454291 36.342024
H  30.610864 30.408215 37.318884
H  31.014516 31.241666 36.049844
O  33.334468 30.175458 28.846506
H  33.316427 29.174828 28.942071
H  33.032414 30.575454 29.697511
O  35.813369 23.335060 33.380605
H  36.117495 22.550488 33.860624
H  34.834620 23.284961 33.373901
O  23.716772 31.108619 31.027864
H  23.826172 30.137610 31.042491
H  23.582688 31.392815 31.953772
O  33.342635 32.859934 37.813470
H  34.206682 32.939592 37.373066
H  33.098115 33.724346 38.176898
O  35.376013 26.964704 31.440598
H  35.913383 26.581103 30.696555
H  35.884007 26.670939 32.233702
O  35.270879 27.272243 35.546726
H  34.500934 27.444967 34.959622
H  34.927320 26.608955 36.188621
O  29.975368 32.860726 39.279675
H  30.390723 33.606719 38.786856
H  29.157275 32.677946 38.778750
O  28.884720 33.834539 30.880616
H  28.736070 34.811094 30.722702
H  28.521414 33.395781 30.090315
O  35.234189 32.629188 35.744316
H  36.115301 32.178606 35.758151
H  34.681886 31.948836 35.300926
O  24.913895 30.460020 26.244248
H  25.481251 29.661430 26.401918
H  24.302169 30.185209 25.550304
O  33.827774 29.179521 31.660373
H  34.553166 28.547195 31.454006
H  34.238496 30.054356 31.866923
O  31.316631 25.834135 28.839558
H  31.260682 25.029389 28.281100
H  30.625735 26.458843 28.486126
O  26.817577 29.555138 29.295199
H  27.486959 29.077435 29.829522
H  27.155407 30.465810 29.198841
O  25.276774 26.770648 36.016323
H  25.763131 26.600849 36.843985
H  25.875640 26.463962 35.305802
O  24.730017 28.510992 30.694544
H  24.957350 27.561802 30.620311
H  25.339549 28.920679 30.037839
O  29.923502 28.574621 23.670574
H  29.794112 27.794803 24.270720
H  29.475176 28.317485 22.847544
O  24.384203 34.757461 28.167190
H  24.192951 33.788341 28.213936
H  23.582505 35.165258 27.818816
O  36.690581 35.255886 32.452502
H  37.273784 35.432755 31.674330
H  35.798193 35.279655 32.023496
O  32.107968 24.853801 35.382108
H  32.782470 25.044748 36.068128
H  32.555137 24.296927 34.705717
O  28.357040 27.677419 30.555158
H  27.601601 27.051980 30.607816
H  28.587420 27.920171 31.477227
O  29.649180 37.394459 37.870456
H  30.200141 37.909218 37.228439
H  29.436840 37.979003 38.608647
O  31.164873 30.486958 38.934287
H  30.832711 29.833666 39.570331
H  30.792974 31.366791 39.189778
O  37.558468 29.386071 31.333453
H  37.027131 29.407463 32.161846
H  36.889268 29.460426 30.619945
O  28.136351 30.979777 31.744967
H  28.671771 31.450105 32.427026
H  27.618544 30.277300 32.208775
O  32.988349 25.853699 31.639102
H  32.367664 26.476944 31.218811
H  33.880493 26.274051 31.493500
O  30.374511 34.798539 25.139216
H  29.913751 34.875332 26.010272
H  29.766503 35.146669 24.470443
O  26.412949 25.839072 27.654442
H  27.062280 25.259099 27.192341
H  26.538744 26.723414 27.264198
O  25.344912 35.646191 35.881081
H  24.685160 36.237988 36.278822
H  25.069675 35.512961 34.943106
O  30.054234 27.683940 39.351592
H  29.676728 26.782045 39.409979
H  29.381256 28.170420 38.841892
O  37.529335 31.183218 35.523627
H  37.214421 30.579842 34.827001
H  37.338753 30.629270 36.308016
O  29.717989 32.403379 33.340502
H  29.347918 32.584392 34.227952
H  30.362931 31.678901 33.497989
O  33.032902 33.225799 33.373596
H  33.614946 33.969049 33.635425
H  32.466398 33.576184 32.653933
O  29.538195 24.536327 36.424364
H  29.223098 25.436699 36.166923
H  30.475378 24.541447 36.133707
O  26.035992 32.594875 31.129158
H  25.239596 32.017462 31.135436
H  26.776133 32.043304 31.484358
O  36.427107 29.447323 37.378003
H  35.504002 29.744988 37.543109
H  36.269863 28.628377 36.890061
O  26.440315 29.139601 32.732615
H  25.991988 29.328110 33.589714
H  25.744482 28.923482 32.066829
O  28.936708 22.917207 34.057300
H  29.014598 23.471338 34.859060
H  28.344668 23.407343 33.450572
O  37.630202 33.207576 26.402771
H  37.253123 32.564401 25.770384
H  36.924374 33.894998 26.404173
O  31.457053 30.393831 33.470014
H  31.754780 30.638717 32.549591
H  30.824240 29.649606 33.335321
O  36.946132 25.737534 29.667464
H  37.768552 26.146611 30.035036
H  36.773408 26.066100 28.765995
O  35.197133 36.461846 28.968766
H  34.865337 36.023759 29.781800
H  35.218465 35.728287 28.309197
