150
Generated XYZ file
 O         26.096560    32.144160    27.529120
 H         25.582000    32.046000    26.683800
 H         25.995840    33.063720    27.794240
 O         28.348320    24.484200    32.460480
 H         27.837120    23.643200    32.573400
 H         27.736880    25.093080    32.005240
 O         30.530840    28.826000    23.604600
 H         31.093760    29.041480    24.352920
 H         29.681680    29.226600    23.884080
 O         21.172200    26.066760    25.451320
 H         20.642480    25.244640    25.506680
 H         21.385160    26.266600    26.395880
 O         29.549360    26.334960    23.381280
 H         29.791200    25.794120    24.166160
 H         30.069960    27.183080    23.439000
 O         31.141000    29.847160    26.365120
 H         31.842800    30.346640    26.810040
 H         30.311280    30.288160    26.638680
 O         28.752120    29.039360    29.408880
 H         29.180400    28.157640    29.395960
 H         28.082640    28.992240    30.117640
 O         28.522720    30.690720    27.265960
 H         27.783400    31.308720    27.417440
 H         28.517080    30.101680    28.043240
 O         21.420480    28.126720    23.676520
 H         20.653320    28.373360    23.144840
 H         21.157000    27.401840    24.270280
 O         26.853760    26.903360    23.767680
 H         27.828680    26.837880    23.619040
 H         26.463600    26.552640    22.938160
 O         29.800600    26.440720    29.145680
 H         28.980840    26.013000    28.805080
 H         30.129360    25.789960    29.800160
 O         25.211600    29.969880    29.062720
 H         25.458440    30.793680    28.593800
 H         24.249480    29.803920    28.855040
 O         23.159240    20.611080    26.556080
 H         22.546560    20.955040    27.227160
 H         24.028880    20.963800    26.856360
 O         26.900840    22.080240    32.553120
 H         26.210320    21.873760    33.185360
 H         26.514040    21.897920    31.669680
 O         26.187560    22.092000    29.864320
 H         25.867720    21.812840    28.975600
 H         27.135680    22.280560    29.675320
 O         26.612160    26.086960    30.889520
 H         26.883120    25.926160    29.950560
 H         26.516280    27.060160    30.969400
 O         27.156720    21.021280    25.120520
 H         26.480000    20.353680    24.839280
 H         27.041040    21.760320    24.483120
 O         22.313320    22.348400    24.437160
 H         21.424520    22.623120    24.741320
 H         22.647960    21.805280    25.182560
 O         24.158640    28.217880    22.510840
 H         24.511520    27.463600    22.004120
 H         23.262120    27.987080    22.803800
 O         26.912720    24.957920    25.823680
 H         26.791400    24.250360    25.157920
 H         26.905280    25.772840    25.283520
 O         28.329000    24.739040    21.617640
 H         28.943920    24.326680    20.999320
 H         28.882240    25.353160    22.158880
 O         28.284160    27.376760    26.348760
 H         29.255080    27.342680    26.487160
 H         28.170640    28.111520    25.702680
 O         26.133800    27.713200    27.908160
 H         25.961560    28.582760    28.312400
 H         27.071680    27.678800    27.627880
 O         28.125560    29.598120    24.744800
 H         28.087360    30.134920    25.559560
 H         27.295120    29.727280    24.236880
 O         21.884880    24.423200    30.092640
 H         22.812320    24.325440    30.421840
 H         21.326480    24.291200    30.878320
 O         20.057480    23.510040    25.717600
 H         19.131520    23.289560    25.843480
 H         20.487040    23.333440    26.593360
 O         26.803920    23.303920    23.610240
 H         27.408680    23.694080    22.951440
 H         25.914360    23.378720    23.186120
 O         25.564240    21.776720    27.228360
 H         26.212080    21.521440    26.533200
 H         25.193000    22.645320    26.925720
 O         23.616720    25.481480    24.400080
 H         22.713080    25.657920    24.739160
 H         24.138840    26.234240    24.744200
 O         22.926760    29.546440    25.644040
 H         22.292760    29.242280    24.962600
 H         23.659880    28.901480    25.542040
 O         25.857760    30.158960    23.195120
 H         25.205440    29.451920    22.939160
 H         26.100720    30.594320    22.373600
 O         23.314760    21.093560    22.317840
 H         22.728400    20.672080    21.673600
 H         22.722720    21.435040    23.025680
 O         28.739480    22.808000    29.152840
 H         29.020000    22.405600    28.291440
 H         29.529520    23.110800    29.637080
 O         27.507440    25.106240    28.482760
 H         27.909880    24.220680    28.664600
 H         27.262280    25.080640    27.534160
 O         29.368000    21.957040    26.659480
 H         29.608800    22.784760    26.210240
 H         28.678680    21.528160    26.111560
 O         21.920480    26.591120    28.021760
 H         22.870200    26.328600    28.050680
 H         21.570280    26.070480    28.765360
 O         24.400400    23.690800    22.471360
 H         23.914000    24.162200    23.177040
 H         23.950000    22.847520    22.265080
 O         24.690280    31.698720    25.328640
 H         23.907680    31.127080    25.490440
 H         25.113040    31.258880    24.565680
 O         22.673280    29.401760    28.349080
 H         22.357080    28.494760    28.491680
 H         22.636680    29.494040    27.365440
 O         24.924960    27.684600    25.487760
 H         25.638600    27.678880    24.817000
 H         25.403080    27.677600    26.355760
 O         24.428480    25.747680    28.325680
 H         25.149440    26.412280    28.248400
 H         24.588080    25.242800    29.146600
 O         29.734920    24.659160    25.636960
 H         28.781440    24.864840    25.820960
 H         30.228600    25.304280    26.170920
 O         24.887400    19.507920    24.385920
 H         24.249280    19.634280    25.110000
 H         24.431320    19.898600    23.615080
 O         25.686120    25.962040    21.456640
 H         25.200720    25.150160    21.716320
 H         26.544880    25.613400    21.142640
 O         26.456640    28.895480    31.146560
 H         26.418360    29.400360    31.975480
 H         25.880400    29.390640    30.517760
 O         30.419240    24.342320    30.860840
 H         31.253320    24.195400    31.326440
 H         29.703840    24.363240    31.553120
 O         21.691680    22.892280    27.727000
 H         22.504800    23.250240    27.289280
 H         21.712640    23.318360    28.605240
 O         24.607120    24.271600    30.605880
 H         25.158440    23.493560    30.357960
 H         25.254160    24.935960    30.933560
 O         23.961440    23.851840    26.557400
 H         24.272240    24.597800    27.126320
 H         23.902360    24.272960    25.670680
 O         30.983160    27.052640    26.823040
 H         31.207120    27.999520    26.764720
 H         30.751480    26.893480    27.770520
